/*--------------------------------*- C++ -*----------------------------------*\
| =========                 |                                                 |
| \\      /  F ield         | foam-extend: Open Source CFD                    |
|  \\    /   O peration     | Version:     3.2                                |
|   \\  /    A nd           | Web:         http://www.foam-extend.org         |
|    \\/     M anipulation  | For copyright notice see file Copyright         |
\*---------------------------------------------------------------------------*/
FoamFile
{
    version     2.0;
    format      ascii;
    class       polyBoundaryMesh;
    location    "constant/polyMesh";
    object      boundary;
}
// * * * * * * * * * * * * * * * * * * * * * * * * * * * * * * * * * * * * * //

6
(
    frontAndBack
    {
        type            empty;
        nFaces          372;
        startFace       259;
    }
    top
    {
        type            patch;
        nFaces          10;
        startFace       631;
    }
    left
    {
        type            patch;
        nFaces          10;
        startFace       641;
    }
    right
    {
        type            patch;
        nFaces          5;
        startFace       651;
    }
    corner
    {
        type            patch;
        nFaces          10;
        startFace       656;
    }
    bottom
    {
        type            patch;
        nFaces          5;
        startFace       666;
    }
)

// ************************************************************************* //
