/*--------------------------------*- C++ -*----------------------------------*\
| =========                 |                                                 |
| \\      /  F ield         | foam-extend: Open Source CFD                    |
|  \\    /   O peration     | Version:     3.2                                |
|   \\  /    A nd           | Web:         http://www.foam-extend.org         |
|    \\/     M anipulation  |                                                 |
\*---------------------------------------------------------------------------*/
FoamFile
{
    version     2.0;
    format      ascii;
    class       volScalarField;
    object      T;
}
// * * * * * * * * * * * * * * * * * * * * * * * * * * * * * * * * * * * * * //

dimensions      [0 0 0 1 0 0 0];

internalField   uniform 0;

boundaryField
{
  frontAndBack
  {
      type            empty;
  }

  top
  {
    type            fixedValue;
    value           uniform 0;
  }
  left
  {
    type            fixedValue;
    value           uniform 0;
  }

  right
  {
      type            zeroGradient;
  }

  corner
  {
      type            fixedValue;
      value           uniform 1;
  }

  bottom
  {
      type            zeroGradient;
  }

}

// ************************************************************************* //
